[General]
network = Athena

#scheduler-class = "cSocketRTScheduler"

cmdenv-express-mode = true

tkenv-plugin-path = ../../../../etc/plugins
# tkenv-default-run = 1

sim-time-limit = 1h

# Define the number of hosts
**.numberOfHosts = 100
**.numberOfLocalNet = 10

# Controller
**.controller.config = xmldoc("./controller_cfg.xml","//controller-profile[@id='uniform']")
**.controller.events = ""
**.controller.eventsSection = ""

**.displayAddresses = false
**.optimizeRoutes = false

**.C2.tcpApp[0].regex = "torrent"

# Routing settings
**.**.networkLayer.arpType = "GlobalARP"
**.**.routingTable.netmaskRoutes = ""

# udp app (off)
**.numUdpApps = 0

# tcp apps
**.cli[*].numTcpApps = 1
**.cli[*].tcpApp[*].typename = "HttpBrowser"
**.cli[*].tcpApp[*].httpProtocol = 11
**.cli[*].tcpApp[*].logFile = "" # Logging disabled
**.cli[*].tcpApp[*].config = xmldoc("./browser_cfg2.xml","//user-profile[@id='normal']")
**.cli[*].tcpApp[*].activationTime = 0.0
**.cli[*].tcpApp[*].logPath = "/home/fabio/Documentos/PIBIC/paths"

# Servers
**.srv.numTcpApps = 1
**.srv.tcpApp[0].typename = "HttpServer"
**.srv.tcpApp[0].hostName = "www.single.org"
**.srv.tcpApp[0].port = 80
**.srv.tcpApp[0].httpProtocol = 11
**.srv.tcpApp[0].logFile = "" # Logging disabled
**.srv.tcpApp[0].siteDefinition = "" # Use the random page and resource generation
**.srv.tcpApp[0].config = xmldoc("./server_cfg.xml","//server-profile[@id='normal']")
**.srv.tcpApp[0].activationTime = 0.0

# tcp settings
**.tcp.mss = 1024
**.tcp.advertisedWindow = 14336  # 14*mss
**.tcp.tcpAlgorithmClass = "TCPReno"
**.tcp.recordStats = true

# ip settings
**.ip.procDelay = 10000us
**.srv.forwarding = false

# ARP configuration
**.arp.retryTimeout = 1s
**.arp.retryCount = 3
**.arp.cacheTimeout = 100s
**.networkLayer.proxyARP = true  # Host's is hardwired "false"

# NIC configuration
**.ppp[*].queueType = "DropTailQueue" # in routers
**.ppp[*].queue.frameCapacity = 10  # in routers

# hook names
**.qosBehaviorClass = "EnqueueWithoutQoS"

# nam trace
**.nam.logfile = "trace.nam"
**.nam.prolog = ""
**.namid = -1  # auto

[Config Athena]
**.numberOfHosts = 2
**.numberOfLocalNet = 1

**.cli[*].numTcpApps = 2
**.cli[*].tcpApp[0].typename = "AthenaBot"
**.cli[*].tcpApp[0].serverName = "www.server.org"
**.cli[*].tcpApp[1].typename = "HTTPModule"

# if uniform(0,1) < connectedness
**.configurator.config = xmldoc("network.xml")

**.C2.numTcpApps = 1
**.C2.tcpApp[0].typename = "AthenaCC"
**.C2.tcpApp[0].hostName = "www.server.org"
**.C2.tcpApp[0].port = 80
**.C2.tcpApp[0].httpProtocol = 11
**.C2.tcpApp[0].logFile = "" # Logging disabled
**.C2.tcpApp[0].siteDefinition = "" # Use the random page and resource generation
**.C2.tcpApp[0].config = xmldoc("./server_cfg.xml","//server-profile[@id='normal']")
**.C2.tcpApp[0].activationTime = 0.0

**.srv.numTcpApps = 1
**.srv.tcpApp[0].typename = "HttpServer"
**.srv.tcpApp[0].hostName = "www.goodserver.org"

**.numPcapRecorders = 1
**.srv.pcapRecorder[*].pcapFile = "server.pcap"
**.C2.pcapRecorder[*].pcapFile = "c2.pcap"

[Config Athena_10]
**.numberOfHosts = 10
**.numberOfLocalNet = 1

**.cli[*].numTcpApps = 2
**.cli[*].tcpApp[0].typename = "AthenaBot"
**.cli[*].tcpApp[0].serverName = "www.server.org"
**.cli[*].tcpApp[1].typename = "HTTPModule"

# if uniform(0,1) < connectedness
**.configurator.config = xmldoc("network.xml")

**.C2.numTcpApps = 1
**.C2.tcpApp[0].typename = "AthenaCC"
**.C2.tcpApp[0].hostName = "www.server.org"
**.C2.tcpApp[0].port = 80
**.C2.tcpApp[0].httpProtocol = 11
**.C2.tcpApp[0].logFile = "" # Logging disabled
**.C2.tcpApp[0].siteDefinition = "" # Use the random page and resource generation
**.C2.tcpApp[0].config = xmldoc("./server_cfg.xml","//server-profile[@id='normal']")
**.C2.tcpApp[0].activationTime = 0.0


**.srv.numTcpApps = 1
**.srv.tcpApp[0].typename = "HttpServer"
**.srv.tcpApp[0].hostName = "www.goodserver.org"

**.numPcapRecorders = 1
**.srv.pcapRecorder[*].pcapFile = "server.pcap"
**.C2.pcapRecorder[*].pcapFile = "c2.pcap"

[Config Athena_10_ddos]
**.numberOfHosts = 10
**.numberOfLocalNet = 1

**.cli[*].numTcpApps = 2
**.cli[*].tcpApp[0].typename = "AthenaBot"
**.cli[*].tcpApp[0].serverName = "www.server.org"
**.cli[*].tcpApp[1].typename = "HTTPModule"

# if uniform(0,1) < connectedness
**.configurator.config = xmldoc("network.xml")

**.C2.numTcpApps = 1
**.C2.tcpApp[0].typename = "AthenaCC"
**.C2.tcpApp[0].hostName = "www.server.org"
**.C2.tcpApp[0].port = 80
**.C2.tcpApp[0].httpProtocol = 11
**.C2.tcpApp[0].logFile = "" # Logging disabled
**.C2.tcpApp[0].siteDefinition = "" # Use the random page and resource generation
**.C2.tcpApp[0].config = xmldoc("./server_cfg.xml","//server-profile[@id='normal']")
**.C2.tcpApp[0].activationTime = 0.0
**.C2.tcpApp[0].command = 1

**.srv.numTcpApps = 1
**.srv.tcpApp[0].typename = "HttpServer"
**.srv.tcpApp[0].hostName = "www.goodserver.org"

**.numPcapRecorders = 1
**.srv.pcapRecorder[*].pcapFile = "server.pcap"
**.C2.pcapRecorder[*].pcapFile = "c2.pcap"

[Config Athena_100]
**.numberOfHosts = 100
**.numberOfLocalNet = 10

**.cli[*].numTcpApps = 2
**.cli[*].tcpApp[0].typename = "AthenaBot"
**.cli[*].tcpApp[0].serverName = "www.server.org"
**.cli[*].tcpApp[1].typename = "HTTPModule"

# if uniform(0,1) < connectedness
**.configurator.config = xmldoc("network.xml")

**.C2.numTcpApps = 1
**.C2.tcpApp[0].typename = "AthenaCC"
**.C2.tcpApp[0].hostName = "www.server.org"
**.C2.tcpApp[0].port = 80
**.C2.tcpApp[0].httpProtocol = 11
**.C2.tcpApp[0].logFile = "" # Logging disabled
**.C2.tcpApp[0].siteDefinition = "" # Use the random page and resource generation
**.C2.tcpApp[0].config = xmldoc("./server_cfg.xml","//server-profile[@id='normal']")
**.C2.tcpApp[0].activationTime = 0.0

**.srv.numTcpApps = 1
**.srv.tcpApp[0].typename = "HttpServer"
**.srv.tcpApp[0].hostName = "www.goodserver.org"

**.numPcapRecorders = 1
**.srv.pcapRecorder[*].pcapFile = "server.pcap"
**.C2.pcapRecorder[*].pcapFile = "c2.pcap"

[Config Athena_100_ddos]
**.numberOfHosts = 100
**.numberOfLocalNet = 10

**.cli[*].numTcpApps = 2
**.cli[*].tcpApp[0].typename = "AthenaBot"
**.cli[*].tcpApp[0].serverName = "www.server.org"
**.cli[*].tcpApp[1].typename = "HTTPModule"

# if uniform(0,1) < connectedness
**.configurator.config = xmldoc("network.xml")

**.C2.numTcpApps = 1
**.C2.tcpApp[0].typename = "AthenaCC"
**.C2.tcpApp[0].hostName = "www.server.org"
**.C2.tcpApp[0].port = 80
**.C2.tcpApp[0].httpProtocol = 11
**.C2.tcpApp[0].logFile = "" # Logging disabled
**.C2.tcpApp[0].siteDefinition = "" # Use the random page and resource generation
**.C2.tcpApp[0].config = xmldoc("./server_cfg.xml","//server-profile[@id='normal']")
**.C2.tcpApp[0].activationTime = 0.0
**.C2.tcpApp[0].command = 1

**.srv.numTcpApps = 1
**.srv.tcpApp[0].typename = "HttpServer"
**.srv.tcpApp[0].hostName = "www.goodserver.org"

**.numPcapRecorders = 1
**.srv.pcapRecorder[*].pcapFile = "server.pcap"
**.C2.pcapRecorder[*].pcapFile = "c2.pcap"

[Config Athena_1000]
**.numberOfHosts = 1000
**.numberOfLocalNet = 100

**.cli[*].numTcpApps = 2
**.cli[*].tcpApp[0].typename = "AthenaBot"
**.cli[*].tcpApp[0].serverName = "www.server.org"
**.cli[*].tcpApp[1].typename = "HTTPModule"

# if uniform(0,1) < connectedness
**.configurator.config = xmldoc("network.xml")

**.C2.numTcpApps = 1
**.C2.tcpApp[0].typename = "AthenaCC"
**.C2.tcpApp[0].hostName = "www.server.org"
**.C2.tcpApp[0].port = 80
**.C2.tcpApp[0].httpProtocol = 11
**.C2.tcpApp[0].logFile = "" # Logging disabled
**.C2.tcpApp[0].siteDefinition = "" # Use the random page and resource generation
**.C2.tcpApp[0].config = xmldoc("./server_cfg.xml","//server-profile[@id='normal']")
**.C2.tcpApp[0].activationTime = 0.0

**.srv.numTcpApps = 1
**.srv.tcpApp[0].typename = "HttpServer"
**.srv.tcpApp[0].hostName = "www.goodserver.org"

**.numPcapRecorders = 1
**.srv.pcapRecorder[*].pcapFile = "server.pcap"
**.C2.pcapRecorder[*].pcapFile = "c2.pcap"


[Config Athena_1000_ddos]
**.numberOfHosts = 1000
**.numberOfLocalNet = 100

**.cli[*].numTcpApps = 2
**.cli[*].tcpApp[0].typename = "AthenaBot"
**.cli[*].tcpApp[0].serverName = "www.server.org"
**.cli[*].tcpApp[1].typename = "HTTPModule"

# if uniform(0,1) < connectedness
**.configurator.config = xmldoc("network.xml")

**.C2.numTcpApps = 1
**.C2.tcpApp[0].typename = "AthenaCC"
**.C2.tcpApp[0].hostName = "www.server.org"
**.C2.tcpApp[0].port = 80
**.C2.tcpApp[0].httpProtocol = 11
**.C2.tcpApp[0].logFile = "" # Logging disabled
**.C2.tcpApp[0].siteDefinition = "" # Use the random page and resource generation
**.C2.tcpApp[0].config = xmldoc("./server_cfg.xml","//server-profile[@id='normal']")
**.C2.tcpApp[0].activationTime = 0.0
**.C2.tcpApp[0].command = 1

**.srv.numTcpApps = 1
**.srv.tcpApp[0].typename = "HttpServer"
**.srv.tcpApp[0].hostName = "www.goodserver.org"

**.numPcapRecorders = 1
**.srv.pcapRecorder[*].pcapFile = "server.pcap"
**.C2.pcapRecorder[*].pcapFile = "c2.pcap"
